kpg193_v2_0_2037/network/m/KPG193_ver2_0_2037.m
function mpc = KPG193_ver2_0_2037
% Generated from KPG193_ver1_6 ACOPF hourly result.
% Bus voltage angle Va is in degrees, matching MATPOWER case format.
mpc.version = '2';

%-----  Power Flow Data  -----%%
% system MVA base
mpc.baseMVA = 100;

% bus data
%	bus_i	type	Pd	Qd	Gs	Bs	area	Vm	Va	baseKV	zone	Vmax	Vmin
mpc.bus = [
	1	1	74.8118034827	7.48118034827	0	0	1	1.0236687262	-14.7398835447	154	1	1.1	0.9	;
	2	1	90.4197034294	9.04197034294	0	0	1	1.0271749612	-16.5130370799	345	1	1.05	0.95	;
	3	1	414.699902947	41.4699902947	0	0	1	1.02724086091	-16.439662263	345	1	1.05	0.95	;
	4	1	96.1841081929	9.61841081929	0	0	1	1.0287516455	-16.9674581707	345	1	1.05	0.95	;
	5	1	88.9009861464	10.8612788129	0	0	1	1.03068666596	-7.48540975399	154	1	1.1	0.9	;
	6	1	92.4122218546	9.24122218546	0	0	1	1.02735954654	-17.9179477662	154	1	1.1	0.9	;
	7	1	623.536065711	62.3552054195	0	0	1	1.03081189374	-17.2901043912	345	1	1.05	0.95	;
	8	1	1423.36162475	142.336162475	0	0	1	1.02807792172	-17.5907770238	345	1	1.05	0.95	;
	9	1	360.351434405	36.0351434405	0	0	1	1.03023575957	-17.319228967	154	1	1.1	0.9	;
	10	2	791.677882549	79.1677882549	0	0	1	1.03004726159	-17.4545121794	154	1	1.1	0.9	;
	11	1	655.732064225	65.5732064225	0	0	1	1.0273139423	-17.9319438333	345	1	1.05	0.95	;
	12	1	359.808049571	35.9808049571	0	0	1	1.03012714056	-17.3356975463	154	1	1.1	0.9	;
	13	1	387.810003567	38.7810003567	0	0	1	1.03042476321	-17.3126468379	154	1	1.1	0.9	;
	14	1	415.897555975	41.5897555975	0	0	1	1.0302083602	-17.3629918286	345	1	1.05	0.95	;
	15	1	123.030604427	12.3030604427	0	0	1	1.03109375445	-17.2211112251	154	1	1.1	0.9	;
	16	2	530.020691495	53.0020691495	0	0	1	1.03149393627	-17.1751274478	345	1	1.05	0.95	;
	17	1	571.525613672	57.1525613672	0	0	1	1.031061962	-17.2728591723	345	1	1.05	0.95	;
	18	1	596.6964586	59.66964586	0	0	1	1.03082940581	-17.3128447829	345	1	1.05	0.95	;
	19	2	561.501271474	56.1750242906	0	0	1	1.03023749418	-17.3609711241	345	1	1.05	0.95	;
	20	2	287.254859745	29.0098491176	0	0	1	1.02897559779	-16.7116423206	154	1	1.1	0.9	;
	21	2	856.187144193	87.564573659	0	0	1	1.0279108072	-17.7635654086	345	1	1.05	0.95	;
	22	1	707.104800231	70.7104800231	0	0	1	1.03146682131	-17.1502187867	345	1	1.05	0.95	;
	23	1	413.791657905	41.3791657905	0	0	1	1.02932815987	-17.419426087	345	1	1.05	0.95	;
	24	1	676.971502163	67.6971502163	0	0	1	1.02931320236	-17.4931162095	154	1	1.1	0.9	;
	25	1	547.448463589	54.7448463589	0	0	1	1.02866363604	-17.630290016	154	1	1.1	0.9	;
	26	1	646.146813731	64.6146813731	0	0	1	1.02940331163	-17.4828472623	345	1	1.05	0.95	;
	27	2	-341.472128851	3.68056257714	0	0	1	1.0309857428	-17.0783480192	345	1	1.05	0.95	;
	28	1	146.488836929	14.6488836929	0	0	1	1.02493901082	-12.4891411398	765	1	1.05	0.95	;
	29	1	712.402087042	71.2405620748	0	0	1	1.02977014848	-17.2082379723	345	1	1.05	0.95	;
	30	1	553.525709206	55.3525709206	0	0	1	1.02971219261	-17.2113874035	154	1	1.1	0.9	;
	31	1	450.16409797	45.0175733646	0	0	1	1.02832176216	-17.4982917017	154	1	1.1	0.9	;
	32	1	185.608760289	18.5608760289	0	0	1	1.02898192779	-17.4525358342	345	1	1.05	0.95	;
	33	1	535.236396754	53.5236396754	0	0	1	1.02868372787	-17.4678743658	154	1	1.1	0.9	;
	34	2	1196.99217372	119.700029032	0	0	1	1.02976250202	-17.4265711279	345	1	1.05	0.95	;
	35	1	729.222769369	72.9222769369	0	0	1	1.02595055005	-17.7482736761	154	1	1.1	0.9	;
	36	2	841.241778375	84.1241778375	0	0	1	1.02970630694	-17.1803458237	345	1	1.05	0.95	;
	37	1	1031.34594497	103.134594497	0	0	1	1.02793253369	-17.5109565618	345	1	1.05	0.95	;
	38	1	417.706879306	41.7706879306	0	0	1	1.0268809517	-16.4304424403	345	1	1.05	0.95	;
	39	1	805.874173702	80.5874173702	0	0	1	1.02291252009	-18.4406439958	154	1	1.1	0.9	;
	40	2	1193.03381314	122.156800063	0	0	1	1.02538382926	-16.9511917522	345	1	1.05	0.95	;
	41	1	220.722549166	22.0722549166	0	0	1	1.01647092527	-11.4867346893	154	1	1.1	0.9	;
	42	2	1347.07226224	134.707226224	0	0	1	1.01750500868	-15.3107951087	154	1	1.1	0.9	;
	43	2	702.06652615	70.210764068	0	0	1	1.02364438667	-18.0241432012	154	1	1.1	0.9	;
	44	1	216.600701028	21.662002588	0	0	1	1.02585137122	-17.4970558386	345	1	1.05	0.95	;
	45	1	396.620600519	39.6620600519	0	0	1	1.02563785756	-16.9253896519	345	1	1.05	0.95	;
	46	2	1247.7116719	124.77116719	0	0	1	1.02648633246	-16.6366421544	345	1	1.05	0.95	;
	47	1	3160.25307479	316.026169394	0	0	1	1.02129096194	-18.3640708867	345	1	1.05	0.95	;
	48	2	220.442321066	22.0442321066	0	0	1	1.02609434644	-16.9618142643	154	1	1.1	0.9	;
	49	1	451.00949277	45.100949277	0	0	1	1.02342903965	-17.5280138001	154	1	1.1	0.9	;
	50	1	536.329366871	53.6329366871	0	0	1	1.02567051218	-16.3131472689	765	1	1.05	0.95	;
	51	1	2148.6703806	214.86703806	0	0	1	1.02452400486	-17.328476345	345	1	1.05	0.95	;
	52	1	494.472146436	49.4472146436	0	0	2	1.01450635637	-13.5442602367	154	1	1.1	0.9	;
	53	2	1026.22598431	102.622598431	0	0	2	1.02848337186	-13.6313233327	765	1	1.05	0.95	;
	54	1	440.926837398	44.0926837398	0	0	2	1.02211604705	-15.7957937694	345	1	1.05	0.95	;
	55	1	1283.45623916	128.346128867	0	0	2	1.02337567471	-15.9129019629	345	1	1.05	0.95	;
	56	1	178.318400783	17.8318400783	0	0	2	1.01581138076	-15.3451039618	154	1	1.1	0.9	;
	57	1	2020.87937999	202.088322627	0	0	2	1.02305465519	-16.2047153976	345	1	1.05	0.95	;
	58	1	1512.7666454	151.277741907	0	0	2	1.0270195829	-13.6138415443	345	1	1.05	0.95	;
	59	2	137.307511238	13.7364835447	0	0	2	1.02733848426	-12.950804174	345	1	1.05	0.95	;
	60	1	200.045338986	20.0045338986	0	0	2	1.02631608372	-14.4426413753	345	1	1.05	0.95	;
	61	1	957.705540178	95.770626799	0	0	2	1.02175726617	-15.8144039074	154	1	1.1	0.9	;
	62	1	1127.21912245	112.722252698	0	0	2	1.02390667536	-15.7696542996	765	1	1.05	0.95	;
	63	1	156.170395701	15.6170395701	0	0	2	1.02795956142	-14.163296896	765	1	1.05	0.95	;
	64	1	569.036656672	56.9036656672	0	0	2	1.01965850885	-14.8902619029	345	1	1.05	0.95	;
	65	1	86.2117990963	13.5326176015	0	0	3	1.02015974624	-0.587005706143	154	1	1.1	0.9	;
	66	1	32.7814490048	3.90921421262	0	0	3	1.02175754602	-9.10704182185	154	1	1.1	0.9	;
	67	1	28.1303271485	3.09726134384	0	0	3	1.0188807578	-6.1496015196	154	1	1.1	0.9	;
	68	1	-17.8166093705	4.89006893222	0	0	3	1.02367804541	1.23250215536	345	1	1.05	0.95	;
	69	1	0.859697717048	5.08835447094	0	0	3	1.01874678968	-3.96362048261	154	1	1.1	0.9	;
	70	1	279.848624454	28.0646912707	0	0	3	1.02094263483	-9.0141232727	154	1	1.1	0.9	;
	71	2	316.506285487	31.6506285487	0	0	3	1.02602338206	3.19293876031	345	1	1.05	0.95	;
	72	1	110.501912048	11.0501912048	0	0	3	1.01837701494	-7.98144853917	154	1	1.1	0.9	;
	73	2	349.144812737	35.8851730915	0	0	3	1.02485840101	5.43972188742	345	1	1.05	0.95	;
	74	1	-152.576064629	10.2052149038	0	0	3	1.01900125888	-7.88914229204	154	1	1.1	0.9	;
	75	2	145.161117277	21.1789956361	0	0	3	1.02763937439	7.39130289849	345	1	1.05	0.95	;
	76	1	13.922624363	9.42814560206	0	0	3	1.01165840559	0.171946682883	154	1	1.1	0.9	;
	77	1	388.810530622	38.8810530622	0	0	3	1.01624091393	-9.58749717174	154	1	1.1	0.9	;
	78	1	-1046.9980964	9.41023677173	0	0	3	1.02628362473	-5.15313990876	154	1	1.1	0.9	;
	79	1	171.53309606	17.153309606	0	0	3	1.00813024289	-3.08081284752	154	1	1.1	0.9	;
	80	1	-3892.83449651	4.55158076538	0	0	3	1.01540863811	6.66931340567	765	1	1.05	0.95	;
	81	1	248.427053841	24.8439604594	0	0	3	1.01207451989	-5.38237031742	345	1	1.05	0.95	;
	82	2	-10.9400154909	10.8023101238	0	0	3	1.02358704405	10.1469827858	765	1	1.05	0.95	;
	83	1	284.067059713	28.4075922249	0	0	3	1.00199523972	-5.54089036055	154	1	1.1	0.9	;
	84	1	399.294026216	41.4383196878	0	0	3	1.01416525234	-12.1384269927	345	1	1.05	0.95	;
	85	1	267.550275273	26.7550275273	0	0	3	1.00764907808	-0.75539441023	154	1	1.1	0.9	;
	86	1	262.000879489	26.200385254	0	0	3	1.01259918991	-1.75137124744	345	1	1.05	0.95	;
	87	2	23.4826826927	5.99388580973	0	0	3	1.01586221984	-1.53358145565	345	1	1.05	0.95	;
	88	1	-963.839431707	1.6853868165	0	0	3	1.02159889785	8.09209017694	154	1	1.1	0.9	;
	89	1	90.9056565783	9.09144509724	0	0	3	1.0084120968	-5.28890996902	154	1	1.1	0.9	;
	90	1	175.340042341	18.2075148362	0	0	3	1.01211543429	-2.66278229213	154	1	1.1	0.9	;
	91	1	60.9500950187	6.09500950187	0	0	3	1.01525442568	-13.0490925134	154	1	1.1	0.9	;
	92	1	-225.967990944	3.09338807613	0	0	3	1.01490891107	-0.926580574748	345	1	1.05	0.95	;
	93	1	120.588871263	12.06048598	0	0	3	1.00839420933	-8.74789246857	154	1	1.1	0.9	;
	94	1	-869.717197368	4.45805866309	0	0	3	1.02108156559	7.22201449092	154	1	1.1	0.9	;
	95	1	68.5057049168	6.85057049168	0	0	3	1.0135569334	-2.22828080854	345	1	1.05	0.95	;
	96	1	177.235737906	17.7235737906	0	0	4	1.02067623506	-14.2250879892	154	1	1.1	0.9	;
	97	1	55.1479238819	5.51479238819	0	0	4	1.02576708288	-12.7073635406	345	1	1.05	0.95	;
	98	1	281.402320714	28.4320880261	0	0	4	1.01497812379	-15.1080606033	154	1	1.1	0.9	;
	99	2	912.225408324	91.2225408324	0	0	4	1.0149521903	-15.4731027524	154	1	1.1	0.9	;
	100	2	213.777965368	21.3777965368	0	0	4	1.02978871144	-10.6297436915	345	1	1.05	0.95	;
	101	1	333.401785241	33.3401785241	0	0	4	1.01782337198	-14.7816501367	154	1	1.1	0.9	;
	102	1	98.1523079726	9.81523079726	0	0	4	1.0173827063	-13.2018465865	345	1	1.05	0.95	;
	103	1	102.896698555	10.2896698555	0	0	4	1.02396166929	-12.6442751429	154	1	1.1	0.9	;
	104	1	217.371971283	21.7371971283	0	0	4	1.02149154279	-13.3640096502	345	1	1.05	0.95	;
	105	1	145.719337007	14.5719337007	0	0	4	1.01255498091	-13.0029397355	154	1	1.1	0.9	;
	106	2	172.45615776	17.245615776	0	0	4	1.02299453157	-11.9179413787	154	1	1.1	0.9	;
	107	1	-2.72089743882	3.27450561743	0	0	4	1.01224726453	-11.7531282724	345	1	1.05	0.95	;
	108	1	895.097512508	89.5097512508	0	0	4	1.02188070158	-12.7946412821	345	1	1.05	0.95	;
	109	1	468.733920129	46.8733920129	0	0	4	1.01954089931	-12.9251391099	345	1	1.05	0.95	;
	110	1	274.307879287	27.4307879287	0	0	4	1.013238503	-13.6539815587	154	1	1.1	0.9	;
	111	1	173.708729055	17.3708729055	0	0	4	1.01697159488	-12.0655535241	345	1	1.05	0.95	;
	112	1	32.1143013722	3.21143013722	0	0	4	1.01192988032	-12.7320456026	154	1	1.1	0.9	;
	113	1	682.63750499	68.263750499	0	0	4	1.01057304084	-13.7119706768	154	1	1.1	0.9	;
	114	1	75.0545179308	7.55096358732	0	0	4	1.01594329168	-12.4784080535	154	1	1.1	0.9	;
	115	1	32.9268018131	3.29268018131	0	0	4	1.01161495377	-11.5810304309	154	1	1.1	0.9	;
	116	1	46.4817893475	4.64817893475	0	0	4	1.01026244566	-12.0846936863	154	1	1.1	0.9	;
	117	1	264.715148227	28.0663581447	0	0	4	1.01633096117	-12.3859980862	154	1	1.1	0.9	;
	118	1	101.932166317	10.1932166317	0	0	4	1.0147538336	-9.77700891805	154	1	1.1	0.9	;
	119	1	102.688782189	10.2688782189	0	0	4	1.00952254474	-10.4954754828	345	1	1.05	0.95	;
	120	1	42.1048357829	4.21048357829	0	0	4	1.01357954175	-11.2765087789	154	1	1.1	0.9	;
	121	1	97.9855400426	9.79855400426	0	0	4	1.01311847426	-12.0643853203	154	1	1.1	0.9	;
	122	1	81.1417375421	8.11417375421	0	0	4	1.01092371792	-11.9547157182	154	1	1.1	0.9	;
	123	1	65.9950060815	6.59950060815	0	0	4	1.00923721919	-11.3071777825	154	1	1.1	0.9	;
	124	2	128.253154337	12.8253154337	0	0	4	1.01358178438	-6.26809611531	345	1	1.05	0.95	;
	125	1	27.3149119986	2.73149119986	0	0	4	1.00877272308	-11.5031335104	154	1	1.1	0.9	;
	126	1	455.050655766	45.5050655766	0	0	4	1.00960867289	-11.2416917039	345	1	1.05	0.95	;
	127	1	358.577300637	35.8577300637	0	0	4	1.00694000123	-12.224377195	154	1	1.1	0.9	;
	128	1	541.774971907	54.1774971907	0	0	4	1.00471796261	-13.3421773994	154	1	1.1	0.9	;
	129	1	64.125127713	6.4125127713	0	0	4	1.01083273027	-13.4314372372	154	1	1.1	0.9	;
	130	1	20.2408206969	8.11201567574	0	0	4	1.00900031351	-11.5710933987	345	1	1.05	0.95	;
	131	1	207.883431694	20.7883431694	0	0	4	1.00634089291	-12.9570319555	154	1	1.1	0.9	;
	132	1	111.592707982	11.1592707982	0	0	4	1.01160456536	-13.2100282856	154	1	1.1	0.9	;
	133	1	295.023555274	33.4002906726	0	0	4	0.998024967003	-11.4915780816	345	1	1.05	0.95	;
	134	1	760.961500667	76.0961500666	0	0	4	0.997108368053	-10.916851977	345	1	1.05	0.95	;
	135	1	160.788698771	16.1495212764	0	0	4	1.01025138819	-13.3967648177	154	1	1.1	0.9	;
	136	1	185.711752169	18.5711752169	0	0	4	1.00844356732	-12.2424562268	345	1	1.05	0.95	;
	137	2	2173.56048724	221.012867089	0	0	4	0.991176354816	-11.6979216421	345	1	1.05	0.95	;
	138	1	47.759404015	4.7759404015	0	0	4	1.00297318576	-12.1523449292	154	1	1.1	0.9	;
	139	1	50.6699110454	5.06699110454	0	0	4	1.0125922369	-13.1607741133	154	1	1.1	0.9	;
	140	1	12.1650404555	5.85944879425	0	0	4	1.00767180852	-12.3977951343	154	1	1.1	0.9	;
	141	1	60.9055645188	6.09055645188	0	0	4	1.00967904314	-12.4392793859	154	1	1.1	0.9	;
	142	1	82.7577195886	8.27577195886	0	0	4	0.99952779709	-12.1371580552	154	1	1.1	0.9	;
	143	1	118.902883182	11.8988877754	0	0	4	1.01104323827	-12.5678226729	154	1	1.1	0.9	;
	144	1	54.4293824005	5.47360368893	0	0	4	1.01024538612	-13.3445188583	154	1	1.1	0.9	;
	145	1	23.7283640076	17.0026547919	0	0	4	1.00969694228	-12.7077788547	154	1	1.1	0.9	;
	146	1	-25.797321089	4.97288116745	0	0	5	1.00786856969	-4.33310798585	154	1	1.1	0.9	;
	147	1	67.4099164133	6.74099164133	0	0	5	1.01341973327	-12.1605413825	154	1	1.1	0.9	;
	148	1	364.965051874	36.4965051874	0	0	5	0.992916168133	-9.56172569062	154	1	1.1	0.9	;
	149	2	1443.83985688	144.383985688	0	0	5	1.00172369331	-7.80369728042	345	1	1.05	0.95	;
	150	1	628.171035734	80.2916881462	0	0	5	1.01436910497	-0.703122051801	345	1	1.05	0.95	;
	151	1	484.677397957	67.8591349425	0	0	5	1.01615283942	-0.482491867342	345	1	1.05	0.95	;
	152	1	304.124471285	30.4124471285	0	0	5	1.00020747775	-6.50006426431	345	1	1.05	0.95	;
	153	1	238.314673431	23.8314673431	0	0	5	1.00100951825	-3.84178035944	154	1	1.1	0.9	;
	154	1	163.117325637	16.3118603139	0	0	5	0.996279487668	-7.83513533235	154	1	1.1	0.9	;
	155	1	457.054647594	45.7078524805	0	0	5	0.995208790714	-7.99205746213	154	1	1.1	0.9	;
	156	1	492.422535561	49.2422535561	0	0	5	0.995597743724	-6.1961294005	154	1	1.1	0.9	;
	157	1	231.815394631	23.1815394631	0	0	5	0.995457325993	-8.20250947459	154	1	1.1	0.9	;
	158	1	-727.732050478	60.6460555821	0	0	5	1.0163310437	0.134969582907	154	1	1.1	0.9	;
	159	1	421.798531675	42.1798531675	0	0	5	0.998106873048	-4.84592040935	345	1	1.05	0.95	;
	160	1	1203.8010559	120.38010559	0	0	5	0.9978246374	-9.06835693604	154	1	1.1	0.9	;
	161	1	198.499172389	19.8499172389	0	0	5	0.998813878602	-6.18144935689	345	1	1.05	0.95	;
	162	1	71.6246919909	7.16246919909	0	0	5	0.993465533126	-6.73782059165	154	1	1.1	0.9	;
	163	1	75.3350569876	7.53350569876	0	0	5	0.997739148986	-3.50145287654	345	1	1.05	0.95	;
	164	1	60.2967368515	6.33557888416	0	0	5	0.995343336334	-6.23531205089	154	1	1.1	0.9	;
	165	1	1847.32846178	184.73353868	0	0	5	1.01043373442	-1.57227701465	345	1	1.05	0.95	;
	166	2	586.255220884	59.3366334147	0	0	5	1.02550274967	1.214586384	345	1	1.05	0.95	;
	167	2	2465.50120967	246.55100409	0	0	5	1.02147501861	0.87294578503	345	1	1.05	0.95	;
	168	1	157.010516326	15.7010516326	0	0	5	0.998721897711	-1.98704809422	765	1	1.05	0.95	;
	169	1	44.2482586507	4.42482586507	0	0	5	0.993315343443	-6.49894057041	154	1	1.1	0.9	;
	170	1	169.482762676	19.4435301254	0	0	5	0.993573890791	-2.34958546543	154	1	1.1	0.9	;
	171	1	24.0992452671	5.4429638061	0	0	5	0.994173587547	-5.08578993928	345	1	1.05	0.95	;
	172	2	404.325123162	57.4035990406	0	0	5	0.992333733083	0.196063148562	154	1	1.1	0.9	;
	173	1	28.5693069522	5.95673142881	0	0	5	0.993496574571	-5.01089279356	345	1	1.05	0.95	;
	174	2	431.945124149	43.1945124149	0	0	5	0.990142419067	-3.95749192776	345	1	1.05	0.95	;
	175	2	194.038698285	19.584360851	0	0	5	0.996523935737	3.35213299622	765	1	1.05	0.95	;
	176	1	567.513037163	56.7513037163	0	0	5	0.990315652013	-2.69971812896	345	1	1.05	0.95	;
	177	1	725.614743903	72.5624012461	0	0	5	0.989477306237	-1.53589319162	345	1	1.05	0.95	;
	178	1	820.210372683	82.0214524645	0	0	5	0.986535607675	-1.23678648656	154	1	1.1	0.9	;
	179	1	437.793275241	43.7793275241	0	0	5	0.991824807393	1.39539290027	345	1	1.05	0.95	;
	180	1	409.466160017	40.9466160017	0	0	5	0.98960718257	-5.32026145444	154	1	1.1	0.9	;
	181	1	371.207454914	37.1207454914	0	0	5	0.990327923684	0.643963856015	345	1	1.05	0.95	;
	182	1	670.135334537	67.015302101	0	0	5	0.98941410742	0.111817836641	345	1	1.05	0.95	;
	183	1	303.151718285	30.3157603813	0	0	5	0.990274648279	-1.50821708254	345	1	1.05	0.95	;
	184	1	598.969810111	59.8984102309	0	0	5	0.991423023182	1.28942668477	345	1	1.05	0.95	;
	185	1	342.310220452	34.2310220452	0	0	5	0.98940078982	0.574016650335	154	1	1.1	0.9	;
	186	2	512.556979534	51.2595335161	0	0	5	0.985548939927	1.42773561658	345	1	1.05	0.95	;
	187	1	70.8444016765	7.08444016765	0	0	5	0.985517843289	1.41774988975	345	1	1.05	0.95	;
	188	1	64.6465010143	6.47022526545	0	0	5	0.994946329096	-8.57588056675	154	1	1.1	0.9	;
	189	1	115.339830214	11.8107608693	0	0	5	0.986181512067	-2.48888892402	154	1	1.1	0.9	;
	190	3	206.921283996	21.1930150936	0	0	5	1	0	345	1	1.05	0.95	;
	191	1	294.9446587	29.4962220277	0	0	5	0.977684664904	-2.05222050206	154	1	1.1	0.9	;
	192	2	147.326825432	14.7335480104	0	0	5	0.978833032451	-0.762744044949	154	1	1.1	0.9	;
	193	2	42.0260014983	4.20260014983	0	0	5	0.996709199899	-7.24379083409	345	1	1.05	0.95	;
];

% generator data
%	bus	Pg	Qg	Qmax	Qmin	Vg	mBase	status	Pmax	Pmin	Pc1	Pc2	Qc1min	Qc1max	Qc2min	Qc2max	ramp_agc	ramp_10	ramp_30	ramp_q	apf
mpc.gen = [
	3	0	0	362.5	-362.5	1.02724086091	100	0	725	377	0	0	0	0	0	0	0	120.8333333	362.5	362.5	0	;
	3	0	0	362.5	-362.5	1.02724086091	100	0	725	377	0	0	0	0	0	0	0	120.8333333	362.5	362.5	0	;
	3	0	0	437.1	-437.1	1.02724086091	100	0	874.2	454.584	0	0	0	0	0	0	0	145.7	437.1	437.1	0	;
	4	0	0	262.15	-262.15	1.0287516455	100	0	524.3	272.636	0	0	0	0	0	0	0	87.38333333	262.15	262.15	0	;
	4	0	0	429.2	-429.2	1.0287516455	100	0	858.4	446.368	0	0	0	0	0	0	0	143.0666667	429.2	429.2	0	;
	4	0	0	429.2	-429.2	1.0287516455	100	0	858.4	446.368	0	0	0	0	0	0	0	143.0666667	429.2	429.2	0	;
	8	0	0	423.8	-423.8	1.02807792172	100	0	847.6	440.752	0	0	0	0	0	0	0	141.2666667	423.8	423.8	0	;
	8	0	0	423.8	-423.8	1.02807792172	100	0	847.6	440.752	0	0	0	0	0	0	0	141.2666667	423.8	423.8	0	;
	8	0	0	257.75	-257.75	1.02807792172	100	0	515.5	268.06	0	0	0	0	0	0	0	85.91666667	257.75	257.75	0	;
	9	0	0	57.705	-57.705	1.03023575957	100	0	115.41	60.0132	0	0	0	0	0	0	0	19.235	57.705	57.705	0	;
	9	0	0	18.5	-18.5	1.03023575957	100	0	37	19.24	0	0	0	0	0	0	0	6.166666667	18.5	18.5	0	;
	10	0	0	300	-300	1.03004726159	100	0	600	312	0	0	0	0	0	0	0	100	300	300	0	;
	10	298.505060248	36.3149162196	150	-150	1.03004726159	100	1	300	156	0	0	0	0	0	0	0	50	150	150	0	;
	19	0	0	184.5865	-184.5865	1.03023749418	100	0	369.173	191.96996	0	0	0	0	0	0	0	61.52883333	184.5865	184.5865	0	;
	19	368.017624735	21.330566073	184.5865	-184.5865	1.03023749418	100	1	369.173	191.96996	0	0	0	0	0	0	0	61.52883333	184.5865	184.5865	0	;
	20	362.711919161	36.2433134751	181.9055	-181.9055	1.02897559779	100	1	363.811	189.18172	0	0	0	0	0	0	0	60.63516667	181.9055	181.9055	0	;
	21	448.849171061	24.9316364077	225	-225	1.0279108072	100	1	450	234	0	0	0	0	0	0	0	75	225	225	0	;
	21	0	0	225	-225	1.0279108072	100	0	450	234	0	0	0	0	0	0	0	75	225	225	0	;
	21	0	0	225	-225	1.0279108072	100	0	450	234	0	0	0	0	0	0	0	75	225	225	0	;
	21	0	0	225	-225	1.0279108072	100	0	450	234	0	0	0	0	0	0	0	75	225	225	0	;
	24	0	0	10.5	-10.5	1.02931320236	100	0	21	10.92	0	0	0	0	0	0	0	3.5	10.5	10.5	0	;
	26	0	0	0	0	1.02940331163	100	0	0	0	0	0	0	0	0	0	0	0	0	0	0	;
	27	124.968180102	22.6891144786	63.5	-63.5	1.0309857428	100	1	127	66.04	0	0	0	0	0	0	0	21.16666667	63.5	63.5	0	;
	27	185.459199665	30.3873425804	93.65	-93.65	1.0309857428	100	1	187.3	97.396	0	0	0	0	0	0	0	31.21666667	93.65	93.65	0	;
	34	223.275497473	34.824354863	112.5	-112.5	1.02976250202	100	1	225	117	0	0	0	0	0	0	0	37.5	112.5	112.5	0	;
	34	223.275497473	34.824354863	112.5	-112.5	1.02976250202	100	1	225	117	0	0	0	0	0	0	0	37.5	112.5	112.5	0	;
	34	223.275497473	34.824354863	112.5	-112.5	1.02976250202	100	1	225	117	0	0	0	0	0	0	0	37.5	112.5	112.5	0	;
	34	223.275497473	34.824354863	112.5	-112.5	1.02976250202	100	1	225	117	0	0	0	0	0	0	0	37.5	112.5	112.5	0	;
	34	223.275497473	34.824354863	112.5	-112.5	1.02976250202	100	1	225	117	0	0	0	0	0	0	0	37.5	112.5	112.5	0	;
	34	223.275497473	34.824354863	112.5	-112.5	1.02976250202	100	1	225	117	0	0	0	0	0	0	0	37.5	112.5	112.5	0	;
	34	0	0	112.5	-112.5	1.02976250202	100	0	225	117	0	0	0	0	0	0	0	37.5	112.5	112.5	0	;
	34	223.161861619	34.824354863	112.5	-112.5	1.02976250202	100	1	225	117	0	0	0	0	0	0	0	37.5	112.5	112.5	0	;
	34	0	0	251.7695	-251.7695	1.02976250202	100	0	503.539	261.84028	0	0	0	0	0	0	0	83.92316667	251.7695	251.7695	0	;
	34	0	0	254.454	-254.454	1.02976250202	100	0	508.908	264.63216	0	0	0	0	0	0	0	84.818	254.454	254.454	0	;
	34	0	0	225	-225	1.02976250202	100	0	450	234	0	0	0	0	0	0	0	75	225	225	0	;
	34	448.905957276	24.1813930484	225	-225	1.02976250202	100	1	450	234	0	0	0	0	0	0	0	75	225	225	0	;
	34	0	0	225	-225	1.02976250202	100	0	450	234	0	0	0	0	0	0	0	75	225	225	0	;
	34	0	0	287.3	-287.3	1.02976250202	100	0	574.6	298.792	0	0	0	0	0	0	0	95.76666667	287.3	287.3	0	;
	34	573.613065041	-8.1411979912	287.3	-287.3	1.02976250202	100	1	574.6	298.792	0	0	0	0	0	0	0	95.76666667	287.3	287.3	0	;
	34	0	0	187.8	-187.8	1.02976250202	100	0	375.6	195.312	0	0	0	0	0	0	0	62.6	187.8	187.8	0	;
	34	0	0	187.8	-187.8	1.02976250202	100	0	375.6	195.312	0	0	0	0	0	0	0	62.6	187.8	187.8	0	;
	34	0	0	187.8	-187.8	1.02976250202	100	0	375.6	195.312	0	0	0	0	0	0	0	62.6	187.8	187.8	0	;
	36	0	0	0	0	1.02970630694	100	0	0	0	0	0	0	0	0	0	0	0	0	0	0	;
	36	0	0	0	0	1.02970630694	100	0	0	0	0	0	0	0	0	0	0	0	0	0	0	;
	36	0	0	206.3	-206.3	1.02970630694	100	0	412.6	214.552	0	0	0	0	0	0	0	68.76666667	206.3	206.3	0	;
	36	144.345970938	28.2904239783	73.157	-73.157	1.02970630694	100	1	146.314	76.08328	0	0	0	0	0	0	0	24.38566667	73.157	73.157	0	;
	37	0	0	12	-12	1.02793253369	100	0	24	12.48	0	0	0	0	0	0	0	4	12	12	0	;
	39	0	0	240.845	-240.845	1.02291252009	100	0	481.69	250.4788	0	0	0	0	0	0	0	80.28166667	240.845	240.845	0	;
	39	0	0	240.845	-240.845	1.02291252009	100	0	481.69	250.4788	0	0	0	0	0	0	0	80.28166667	240.845	240.845	0	;
	40	0	0	30	-30	1.02538382926	100	0	60	31.2	0	0	0	0	0	0	0	10	30	30	0	;
	40	0	0	375.6	-375.6	1.02538382926	100	0	751.2	390.624	0	0	0	0	0	0	0	125.2	375.6	375.6	0	;
	40	0	0	0	0	1.02538382926	100	0	0	0	0	0	0	0	0	0	0	0	0	0	0	;
	40	0	0	0	0	1.02538382926	100	0	0	0	0	0	0	0	0	0	0	0	0	0	0	;
	40	868.254452186	-46.5271514299	435	-435	1.02538382926	100	1	870	348	0	0	0	0	0	0	0	95.7	287.1	435	0	;
	40	868.254452186	-46.5271514299	435	-435	1.02538382926	100	1	870	348	0	0	0	0	0	0	0	95.7	287.1	435	0	;
	40	868.254452186	-46.5271514299	435	-435	1.02538382926	100	1	870	348	0	0	0	0	0	0	0	95.7	287.1	435	0	;
	40	868.254452186	-46.5271514299	435	-435	1.02538382926	100	1	870	348	0	0	0	0	0	0	0	95.7	287.1	435	0	;
	43	142.887982761	26.9836757545	72.394	-72.394	1.02364438667	100	1	144.788	75.28976	0	0	0	0	0	0	0	24.13133333	72.394	72.394	0	;
	43	0	0	0	0	1.02364438667	100	0	0	0	0	0	0	0	0	0	0	0	0	0	0	;
	45	0	0	255.9	-255.9	1.02563785756	100	0	511.8	266.136	0	0	0	0	0	0	0	85.3	255.9	255.9	0	;
	47	0	0	0	0	1.02129096194	100	0	0	0	0	0	0	0	0	0	0	0	0	0	0	;
	47	0	0	0	0	1.02129096194	100	0	0	0	0	0	0	0	0	0	0	0	0	0	0	;
	47	0	0	0	0	1.02129096194	100	0	0	0	0	0	0	0	0	0	0	0	0	0	0	;
	47	0	0	0	0	1.02129096194	100	0	0	0	0	0	0	0	0	0	0	0	0	0	0	;
	47	0	0	434.25	-434.25	1.02129096194	100	0	868.5	451.62	0	0	0	0	0	0	0	144.75	434.25	434.25	0	;
	47	0	0	431.65	-431.65	1.02129096194	100	0	863.3	448.916	0	0	0	0	0	0	0	143.8833333	431.65	431.65	0	;
	48	0	0	218.05	-218.05	1.02609434644	100	0	436.1	226.772	0	0	0	0	0	0	0	72.68333333	218.05	218.05	0	;
	48	0	0	189.19	-189.19	1.02609434644	100	0	378.38	196.7576	0	0	0	0	0	0	0	63.06333333	189.19	189.19	0	;
	48	377.26876214	36.4522568213	189.19	-189.19	1.02609434644	100	1	378.38	196.7576	0	0	0	0	0	0	0	63.06333333	189.19	189.19	0	;
	49	0	0	384.915	-384.915	1.02342903965	100	0	769.83	400.3116	0	0	0	0	0	0	0	128.305	384.915	384.915	0	;
	53	0	0	250.375	-250.375	1.02848337186	100	0	500.75	260.39	0	0	0	0	0	0	0	83.45833333	250.375	250.375	0	;
	53	0	0	266.5	-266.5	1.02848337186	100	0	533	277.16	0	0	0	0	0	0	0	88.83333333	266.5	266.5	0	;
	53	0	0	191	-191	1.02848337186	100	0	382	198.64	0	0	0	0	0	0	0	63.66666667	191	191	0	;
	53	0	0	423	-423	1.02848337186	100	0	846	439.92	0	0	0	0	0	0	0	141	423	423	0	;
	53	0	0	0	0	1.02848337186	100	0	0	0	0	0	0	0	0	0	0	0	0	0	0	;
	53	0	0	0	0	1.02848337186	100	0	0	0	0	0	0	0	0	0	0	0	0	0	0	;
	53	499.055424534	16.0400801823	250	-250	1.02848337186	100	1	500	200	0	0	0	0	0	0	0	55	165	250	0	;
	53	499.055424534	16.0400801823	250	-250	1.02848337186	100	1	500	200	0	0	0	0	0	0	0	55	165	250	0	;
	53	0	0	0	0	1.02848337186	100	0	0	0	0	0	0	0	0	0	0	0	0	0	0	;
	53	0	0	0	0	1.02848337186	100	0	0	0	0	0	0	0	0	0	0	0	0	0	0	;
	53	0	0	0	0	1.02848337186	100	0	0	0	0	0	0	0	0	0	0	0	0	0	0	;
	53	0	0	0	0	1.02848337186	100	0	0	0	0	0	0	0	0	0	0	0	0	0	0	;
	53	1018.38246711	-102.488121173	510	-510	1.02848337186	100	1	1020	408	0	0	0	0	0	0	0	112.2	336.6	510	0	;
	53	1018.38246711	-102.488121173	510	-510	1.02848337186	100	1	1020	408	0	0	0	0	0	0	0	112.2	336.6	510	0	;
	57	0	0	50.85	-50.85	1.02305465519	100	0	101.7	52.884	0	0	0	0	0	0	0	16.95	50.85	50.85	0	;
	58	0	0	0	0	1.0270195829	100	0	0	0	0	0	0	0	0	0	0	0	0	0	0	;
	59	0	0	173.165	-173.165	1.02733848426	100	0	346.33	180.0916	0	0	0	0	0	0	0	57.72166667	173.165	173.165	0	;
	59	0	0	0	0	1.02733848426	100	0	0	0	0	0	0	0	0	0	0	0	0	0	0	;
	59	0	0	0	0	1.02733848426	100	0	0	0	0	0	0	0	0	0	0	0	0	0	0	;
	59	0	0	0	0	1.02733848426	100	0	0	0	0	0	0	0	0	0	0	0	0	0	0	;
	59	0	0	0	0	1.02733848426	100	0	0	0	0	0	0	0	0	0	0	0	0	0	0	;
	59	0	0	0	0	1.02733848426	100	0	0	0	0	0	0	0	0	0	0	0	0	0	0	;
	59	0	0	0	0	1.02733848426	100	0	0	0	0	0	0	0	0	0	0	0	0	0	0	;
	59	0	0	0	0	1.02733848426	100	0	0	0	0	0	0	0	0	0	0	0	0	0	0	;
	59	0	0	0	0	1.02733848426	100	0	0	0	0	0	0	0	0	0	0	0	0	0	0	;
	59	1048.38815705	-67.6387486805	525	-525	1.02733848426	100	1	1050	420	0	0	0	0	0	0	0	115.5	346.5	525	0	;
	59	1048.38815705	-67.6387486805	525	-525	1.02733848426	100	1	1050	420	0	0	0	0	0	0	0	115.5	346.5	525	0	;
	62	0	0	0	0	1.02390667536	100	0	0	0	0	0	0	0	0	0	0	0	0	0	0	;
	64	0	0	265.2205	-265.2205	1.01965850885	100	0	530.441	275.82932	0	0	0	0	0	0	0	88.40683333	265.2205	265.2205	0	;
	70	0	0	215.6	-215.6	1.02094263483	100	0	431.2	224.224	0	0	0	0	0	0	0	71.86666667	215.6	215.6	0	;
	71	1039.24947208	4.05442905792	520	-520	1.02602338206	100	1	1040	416	0	0	0	0	0	0	0	114.4	343.2	520	0	;
	73	0	0	0	0	1.02485840101	100	0	0	0	0	0	0	0	0	0	0	0	0	0	0	;
	73	0	0	0	0	1.02485840101	100	0	0	0	0	0	0	0	0	0	0	0	0	0	0	;
	73	594.791621924	51.058961405	297.5	-297.5	1.02485840101	100	1	595	238	0	0	0	0	0	0	0	65.45	196.35	297.5	0	;
	73	591.803483622	51.058961405	297.5	-297.5	1.02485840101	100	1	595	238	0	0	0	0	0	0	0	65.45	196.35	297.5	0	;
	79	0	0	424	-424	1.00813024289	100	0	848	440.96	0	0	0	0	0	0	0	141.3333333	424	424	0	;
	75	569.31173303	41.7976817329	511	-511	1.02763937439	100	1	1022	408.8	0	0	0	0	0	0	0	112.42	337.26	511	0	;
	75	487.741915085	41.7976817329	511	-511	1.02763937439	100	1	1022	408.8	0	0	0	0	0	0	0	112.42	337.26	511	0	;
	82	914.239357486	-10.4102668112	475	-475	1.02358704405	100	1	950	902.5	0	0	0	0	0	0	0	28.5	85.5	475	0	;
	82	914.239357486	-10.4102668112	475	-475	1.02358704405	100	1	950	902.5	0	0	0	0	0	0	0	28.5	85.5	475	0	;
	82	962.269689105	-20.2520962557	500	-500	1.02358704405	100	1	1000	950	0	0	0	0	0	0	0	30	90	500	0	;
	82	962.269689105	-20.2520962557	500	-500	1.02358704405	100	1	1000	950	0	0	0	0	0	0	0	30	90	500	0	;
	82	962.269689105	-20.2520962557	500	-500	1.02358704405	100	1	1000	950	0	0	0	0	0	0	0	30	90	500	0	;
	82	962.269689105	-20.2520962557	500	-500	1.02358704405	100	1	1000	950	0	0	0	0	0	0	0	30	90	500	0	;
	82	1347.9100601	-106.08224122	700	-700	1.02358704405	100	1	1400	1330	0	0	0	0	0	0	0	42	126	700	0	;
	87	359.767327625	42.1393591818	180.8	-180.8	1.01586221984	100	1	361.6	188.032	0	0	0	0	0	0	0	60.26666667	180.8	180.8	0	;
	98	0	0	44	-44	1.01497812379	100	0	88	45.76	0	0	0	0	0	0	0	14.66666667	44	44	0	;
	99	46.453423302	2.84020285304	24.15	-24.15	1.0149521903	100	1	48.3	25.116	0	0	0	0	0	0	0	8.05	24.15	24.15	0	;
	100	448.99152284	32.8892374495	225	-225	1.02978871144	100	1	450	234	0	0	0	0	0	0	0	75	225	225	0	;
	100	0	0	225	-225	1.02978871144	100	0	450	234	0	0	0	0	0	0	0	75	225	225	0	;
	100	0	0	225	-225	1.02978871144	100	0	450	234	0	0	0	0	0	0	0	75	225	225	0	;
	100	549.09494106	21.9464460915	275	-275	1.02978871144	100	1	550	220	0	0	0	0	0	0	0	60.5	181.5	275	0	;
	100	499.087368413	28.0228268738	250	-250	1.02978871144	100	1	500	200	0	0	0	0	0	0	0	55	165	250	0	;
	100	0	0	0	0	1.02978871144	100	0	0	0	0	0	0	0	0	0	0	0	0	0	0	;
	100	0	0	0	0	1.02978871144	100	0	0	0	0	0	0	0	0	0	0	0	0	0	0	;
	100	499.087368413	28.0228268738	250	-250	1.02978871144	100	1	500	200	0	0	0	0	0	0	0	55	165	250	0	;
	100	499.087368413	28.0228268738	250	-250	1.02978871144	100	1	500	200	0	0	0	0	0	0	0	55	165	250	0	;
	100	1017.47841058	-35.2746721196	509.515	-509.515	1.02978871144	100	1	1019.03	407.612	0	0	0	0	0	0	0	112.0933	336.2799	509.515	0	;
	100	1017.47841058	-35.2746721196	509.515	-509.515	1.02978871144	100	1	1019.03	407.612	0	0	0	0	0	0	0	112.0933	336.2799	509.515	0	;
	106	1016.899778	-8.94785687154	509	-509	1.02299453157	100	1	1018	407.2	0	0	0	0	0	0	0	111.98	335.94	509	0	;
	108	0	0	359.2	-359.2	1.02188070158	100	0	718.4	373.568	0	0	0	0	0	0	0	119.7333333	359.2	359.2	0	;
	124	948.59801046	-64.7439618215	475	-475	1.01358178438	100	1	950	902.5	0	0	0	0	0	0	0	28.5	85.5	475	0	;
	124	948.59801046	-64.7439618215	475	-475	1.01358178438	100	1	950	902.5	0	0	0	0	0	0	0	28.5	85.5	475	0	;
	124	998.613408803	-71.441871004	500	-500	1.01358178438	100	1	1000	950	0	0	0	0	0	0	0	30	90	500	0	;
	124	998.613408803	-71.441871004	500	-500	1.01358178438	100	1	1000	950	0	0	0	0	0	0	0	30	90	500	0	;
	124	998.613408803	-71.441871004	500	-500	1.01358178438	100	1	1000	950	0	0	0	0	0	0	0	30	90	500	0	;
	124	998.613408803	-71.441871004	500	-500	1.01358178438	100	1	1000	950	0	0	0	0	0	0	0	30	90	500	0	;
	128	0	0	57.623	-57.623	1.00471796261	100	0	115.246	59.92792	0	0	0	0	0	0	0	19.20766667	57.623	57.623	0	;
	134	0	0	262.75	-262.75	0.997108368053	100	0	525.5	273.26	0	0	0	0	0	0	0	87.58333333	262.75	262.75	0	;
	134	0	0	432.1	-432.1	0.997108368053	100	0	864.2	449.384	0	0	0	0	0	0	0	144.0333333	432.1	432.1	0	;
	134	0	0	247.3	-247.3	0.997108368053	100	0	494.6	257.192	0	0	0	0	0	0	0	82.43333333	247.3	247.3	0	;
	134	0	0	247.3	-247.3	0.997108368053	100	0	494.6	257.192	0	0	0	0	0	0	0	82.43333333	247.3	247.3	0	;
	137	339.341271987	-53.3941633418	170	-170	0.991176354816	100	1	340	136	0	0	0	0	0	0	0	37.4	112.2	170	0	;
	137	327.926393344	-49.7480964632	164.3	-164.3	0.991176354816	100	1	328.6	131.44	0	0	0	0	0	0	0	36.146	108.438	164.3	0	;
	156	0	0	185.35	-185.35	0.995597743724	100	0	370.7	192.764	0	0	0	0	0	0	0	61.78333333	185.35	185.35	0	;
	160	0	0	0	0	0.9978246374	100	0	0	0	0	0	0	0	0	0	0	0	0	0	0	;
	166	695.844374729	197.009726437	350	-350	1.02550274967	100	1	700	665	0	0	0	0	0	0	0	21	63	350	0	;
	166	695.844374729	197.009726437	350	-350	1.02550274967	100	1	700	665	0	0	0	0	0	0	0	21	63	350	0	;
	166	695.844374729	197.009726437	350	-350	1.02550274967	100	1	700	665	0	0	0	0	0	0	0	21	63	350	0	;
	166	996.008923584	316.649518016	500	-500	1.02550274967	100	1	1000	950	0	0	0	0	0	0	0	30	90	500	0	;
	166	996.008923584	316.649518016	500	-500	1.02550274967	100	1	1000	950	0	0	0	0	0	0	0	30	90	500	0	;
	167	297.400716263	67.5970121828	150	-150	1.02147501861	100	1	300	156	0	0	0	0	0	0	0	50	150	150	0	;
	167	440.441027615	119.278089805	225	-225	1.02147501861	100	1	450	234	0	0	0	0	0	0	0	75	225	225	0	;
	167	445.062802988	119.278089805	225	-225	1.02147501861	100	1	450	234	0	0	0	0	0	0	0	75	225	225	0	;
	167	0	0	435.95	-435.95	1.02147501861	100	0	871.9	453.388	0	0	0	0	0	0	0	145.3166667	435.95	435.95	0	;
	167	0	0	221.4	-221.4	1.02147501861	100	0	442.8	230.256	0	0	0	0	0	0	0	73.8	221.4	221.4	0	;
	172	0	0	22.918	-22.918	0.992333733083	100	0	45.836	23.83472	0	0	0	0	0	0	0	7.639333333	22.918	22.918	0	;
	175	636.052429404	2.50822253905	325	-325	0.996523935737	100	1	650	617.5	0	0	0	0	0	0	0	19.5	58.5	325	0	;
	175	933.545240032	-34.1036894288	475	-475	0.996523935737	100	1	950	902.5	0	0	0	0	0	0	0	28.5	85.5	475	0	;
	175	933.545240032	-34.1036894288	475	-475	0.996523935737	100	1	950	902.5	0	0	0	0	0	0	0	28.5	85.5	475	0	;
	175	983.357320287	-41.3948082689	500	-500	0.996523935737	100	1	1000	950	0	0	0	0	0	0	0	30	90	500	0	;
	175	983.357320287	-41.3948082689	500	-500	0.996523935737	100	1	1000	950	0	0	0	0	0	0	0	30	90	500	0	;
	175	1383.5230254	-109.095904221	700	-700	0.996523935737	100	1	1400	1330	0	0	0	0	0	0	0	42	126	700	0	;
	175	1383.5230254	-109.095904221	700	-700	0.996523935737	100	1	1400	1330	0	0	0	0	0	0	0	42	126	700	0	;
	180	0	0	13.15	-13.15	0.98960718257	100	0	26.3	13.676	0	0	0	0	0	0	0	4.383333333	13.15	13.15	0	;
	186	445.373570244	-112.938187868	225	-225	0.985548939927	100	1	450	234	0	0	0	0	0	0	0	75	225	225	0	;
	186	406.026656953	-112.938187868	225	-225	0.985548939927	100	1	450	234	0	0	0	0	0	0	0	75	225	225	0	;
	186	406.026656953	-112.938187868	225	-225	0.985548939927	100	1	450	234	0	0	0	0	0	0	0	75	225	225	0	;
	186	434.872649272	-112.938187868	225	-225	0.985548939927	100	1	450	234	0	0	0	0	0	0	0	75	225	225	0	;
	190	0	0	0	0	1	100	0	0	0	0	0	0	0	0	0	0	0	0	0	0	;
	190	0	0	0	0	1	100	0	0	0	0	0	0	0	0	0	0	0	0	0	0	;
	190	0	0	0	0	1	100	0	0	0	0	0	0	0	0	0	0	0	0	0	0	;
	190	0	0	0	0	1	100	0	0	0	0	0	0	0	0	0	0	0	0	0	0	;
	190	987.149215352	148.292565513	520	-520	1	100	1	1040	416	0	0	0	0	0	0	0	114.4	343.2	520	0	;
	190	987.149215352	148.292565513	520	-520	1	100	1	1040	416	0	0	0	0	0	0	0	114.4	343.2	520	0	;
	193	0	0	0	0	0.996709199899	100	0	0	0	0	0	0	0	0	0	0	0	0	0	0	;
	193	0	0	0	0	0.996709199899	100	0	0	0	0	0	0	0	0	0	0	0	0	0	0	;
	193	0	0	0	0	0.996709199899	100	0	0	0	0	0	0	0	0	0	0	0	0	0	0	;
	193	0	0	0	0	0.996709199899	100	0	0	0	0	0	0	0	0	0	0	0	0	0	0	;
	193	0	0	0	0	0.996709199899	100	0	0	0	0	0	0	0	0	0	0	0	0	0	0	;
	193	0	0	0	0	0.996709199899	100	0	0	0	0	0	0	0	0	0	0	0	0	0	0	;
	193	499.661217023	-6.69073617461	250	-250	0.996709199899	100	1	500	200	0	0	0	0	0	0	0	55	165	250	0	;
	193	499.661217023	-6.69073617461	250	-250	0.996709199899	100	1	500	200	0	0	0	0	0	0	0	55	165	250	0	;
	71	1039.24947208	4.05442905792	520	-520	1.02602338206	100	1	1040	416	0	0	0	0	0	0	0	114.4	343.2	520	0	;
	60	0	0	247.5	-247.5	1.02631608372	100	0	495	257.4	0	0	0	0	0	0	0	82.5	247.5	247.5	0	;
	42	1024.59583613	16.5436469404	512.7	-512.7	1.01750500868	100	1	1025.4	533.208	0	0	0	0	0	0	0	170.9	512.7	512.7	0	;
	11	0	0	0	0	1.0273139423	100	0	0	0	0	0	0	0	0	0	0	0	0	0	0	;
	172	116.889380145	18.162521483	59.486	-59.486	0.992333733083	100	1	118.972	61.86544	0	0	0	0	0	0	0	19.8286666667	59.486	59.486	0	;
	82	1347.9100601	-106.08224122	700	-700	1.02358704405	100	1	1400	1330	0	0	0	0	0	0	0	42	126	700	0	;
	75	582.173425845	39.8454323622	525	-525	1.02763937439	100	1	1050	420	0	0	0	0	0	0	0	115.5	346.5	525	0	;
	64	0	0	298.5855	-298.5855	1.01965850885	100	0	597.171	310.52892	0	0	0	0	0	0	0	99.5285	298.5855	298.5855	0	;
	160	0	0	135	-135	0.9978246374	100	0	270	140.4	0	0	0	0	0	0	0	45	135	135	0	;
	192	1011.09856817	-308.734655882	506	-506	0.978833032451	100	1	1012	526.24	0	0	0	0	0	0	0	168.666666667	506	506	0	;
	167	574.436065334	389.241777791	552.3	-552.3	1.02147501861	100	1	1104.6	574.392	0	0	0	0	0	0	0	184.1	552.3	552.3	0	;
	75	0	0	525	-525	1.02763937439	100	0	1050	546	0	0	0	0	0	0	0	175	525	525	0	;
	62	0	0	135	-135	1.02390667536	100	0	270	140.4	0	0	0	0	0	0	0	45	135	135	0	;
	52	0	0	280.5	-280.5	1.01450635637	100	0	561	291.72	0	0	0	0	0	0	0	93.5	280.5	280.5	0	;
	11	0	0	247.73	-247.73	1.0273139423	100	0	495.46	257.6392	0	0	0	0	0	0	0	82.5766666667	247.73	247.73	0	;
	24	0	0	142.5	-142.5	1.02931320236	100	0	285	148.2	0	0	0	0	0	0	0	47.5	142.5	142.5	0	;
	26	0	0	249	-249	1.02940331163	100	0	498	258.96	0	0	0	0	0	0	0	83	249	249	0	;
...
];

% branch data
%	fbus	tbus	r	x	b	rateA	rateB	rateC	ratio	angle	status	angmin	angmax	Pf	Qf	Pt	Qt
mpc.branch = [
	1	2	0.001953667	0.017794207	0.057753945	904	904	904	0	0	1	-30	30	178.784467048	-39.9964204438	-178.16306016	39.5834734607	;
	1	3	0.002346024	0.021367842	0.069352749	904	904	904	0	0	1	-30	30	142.614288099	-34.2392413759	-142.137973361	31.2847051712	;
	1	66	0.002789894	0.025410654	0.082474341	904	904	904	0	0	1	-30	30	-396.210558166	66.7544814919	400.52452196	-36.0887827827	;
	2	3	0.000230027	0.002463512	0.207508013	2172	2172	2172	0	0	1	-30	30	-54.6282242166	-8.55873361211	54.6347428025	-13.2667889597	;
	2	4	0.001097043	0.009991982	0.032430577	904	904	904	0	0	1	-30	30	81.154113536	-26.4966421266	-81.079247141	23.7515642309	;
	2	6	0.004587512	0.041783555	0.135615211	904	904	904	0	0	1	-30	30	61.2174679906	-13.5700680292	-61.0527340002	0.759307887716	;
	3	4	0.000157872	0.001690763	0.142417379	2172	2172	2172	0	0	1	-30	30	562.527020566	-149.176502941	-562.023575709	139.51791112	;
	3	7	0.001539844	0.014025061	0.04552058	904	904	904	0	0	1	-30	30	107.978685333	-39.5806764216	-107.78837367	36.4938877783	;
	3	28	0.000668777	0.007162388	0.603306441	2172	2172	2172	0	0	1	-30	30	-997.702376549	129.269273971	1004.17554697	-123.463522381	;
	4	7	0.001330617	0.012119404	0.039335464	904	904	904	0	0	1	-30	30	46.8041065487	-24.569839564	-46.770205881	20.7072751302	;
	4	8	0.000413018	0.004423289	0.372585094	2172	2172	2172	0	0	1	-30	30	259.451102673	-26.857625837	-259.188204315	-9.73279901052	;
	5	16	0.00309813	0.028218105	0.091586372	904	904	904	0	0	1	-30	30	632.093248304	-23.4624135985	-620.430942567	119.946981596	;
	5	20	0.003233724	0.029453105	0.095594761	904	904	904	0	0	1	-30	30	576.156476879	-15.7635229007	-566.048135554	97.6930497569	;
	5	66	0.002753227	0.025076687	0.081390398	904	904	904	0	0	1	-30	30	121.591989737	20.7088653122	-121.192573702	-25.6425851574	;
	5	70	0.001710666	0.015580931	0.050570403	904	904	904	0	0	1	-30	30	185.279088295	43.8327026707	-184.691445252	-43.8020080415	;
	6	8	0.001796592	0.016363559	0.053110546	904	904	904	0	0	1	-30	30	-36.8958940437	-3.15691116918	36.919068023	-2.24158499919	;
	6	11	0.001545809	0.014079394	0.045696926	904	904	904	0	0	1	-30	30	1.84546896898	-2.28120633719	-1.84541884027	-2.54128564519	;
	7	9	0.000740338	0.006743076	0.021885732	904	904	904	0	0	1	-30	30	8.86594845743	6.67320681028	-8.86497296877	-8.98854169944	;
	7	14	0.000255269	0.002733843	0.230278712	2172	2172	2172	0	0	1	-30	30	51.0975341951	5.78246133177	-51.0904818919	-30.1614093458	;
	7	28	0.000583767	0.00625196	0.526618746	2172	2172	2172	0	0	1	-30	30	-1387.67951812	257.715876064	1398.70728906	-195.25113221	;
	8	10	0.000160584	0.000184873	0.901984702	1416	1416	1416	0	0	1	-30	30	-1317.84305049	3.50564619753	1320.48565359	-95.9808833358	;
	8	11	0.000158062	0.001692798	0.142588761	2172	2172	2172	0	0	1	-30	30	372.692148921	5.16953366941	-372.484188687	-18.0019814912	;
	8	14	0.000269282	0.002883925	0.242920462	2172	2172	2172	0	0	1	-30	30	-151.746701213	-74.3254048842	151.815000549	49.3282705572	;
	9	12	0.000119405	0.000137466	0.167672111	708	708	708	0	0	1	-30	30	166.795276151	-72.3429212395	-166.759449791	54.5895644095	;
	9	13	0.000176983	0.000203752	0.248523638	708	708	708	0	0	1	-30	30	-81.4260566831	-38.0235854192	81.4381407806	11.6547135511	;
	9	15	0.000297907	0.000342968	0.41832935	708	708	708	0	0	1	-30	30	-429.684581232	93.7523721724	430.240529917	-137.550204384	;
	10	14	0.00105221	0.00958364	0.031105236	904	904	904	0	0	1	-30	30	-17.6623357516	-1.42829809734	17.6654299838	-1.84429283821	;
	10	24	0.000243464	0.000280289	1.367512381	1416	1416	1416	0	0	1	-30	30	278.860289628	-44.9206029864	-278.680097726	-99.861290132	;
	11	21	0.00015784	0.00169041	0.142387631	2172	2172	2172	0	0	1	-30	30	-185.327828878	-26.2124034767	185.379719722	11.7321831271	;
	11	25	0.00110679	0.010080759	0.032718716	904	904	904	0	0	1	-30	30	-56.0099310493	-9.18628882426	56.0434141138	6.03366844283	;
	12	14	0.000665432	0.00606083	0.019671394	904	904	904	0	0	1	-30	30	8.09238987388	-3.31066848769	-8.09194699457	1.22708425852	;
	12	18	0.000258897	0.000298056	0.363549377	708	708	708	0	0	1	-30	30	-201.140988081	-87.2597015003	201.250966361	48.7815297042	;
	13	16	0.000661549	0.006025463	0.019556605	904	904	904	0	0	1	-30	30	-43.8120512431	-14.461315632	43.8251334647	12.5018425057	;
	13	17	0.000189196	0.000217813	0.265674267	708	708	708	0	0	1	-30	30	-342.240562552	-18.1554043392	342.449301353	-9.8303676777	;
	13	22	0.000821755	0.00748463	0.024292563	904	904	904	0	0	1	-30	30	-41.3274455952	-11.0413963452	41.3414002319	8.5865627884	;
	14	18	9.94e-05	0.000114489	0.558582953	1416	1416	1416	0	0	1	-30	30	-739.383739653	53.8138581088	739.902269855	-112.536407388	;
	14	19	2.7e-05	6.2e-05	1.344867636	1906	1906	1906	0	0	1	-30	30	-68.4702351263	-89.9584172113	68.4715157148	-52.7774167504	;
	14	23	0.000322118	0.000370841	0.45232683	708	708	708	0	0	1	-30	30	281.658416892	-23.9948487995	-281.417642485	-23.6937288924	;
	15	16	0.000110729	0.000127478	0.155489196	708	708	708	0	0	1	-30	30	-541.76264601	138.901834796	542.090894708	-155.061253135	;
	16	17	1.61e-05	3.7e-05	7.216516162	5718	5718	5718	0	0	1	-30	30	4564.57604705	-1161.67000924	-4561.33173495	401.624667741	;
	16	20	0.000640865	0.005837068	0.018945138	904	904	904	0	0	1	-30	30	-140.446416728	59.5096729489	140.587286645	-60.2374234731	;
	16	22	3.29e-05	7.57e-05	1.640782241	1906	1906	1906	0	0	1	-30	30	-500.386379425	167.264992418	500.483839408	-341.612062868	;
	16	28	0.000193401	0.002071259	0.697869898	4344	4344	4344	0	0	1	-30	30	-4087.83628807	841.621805616	4119.61464631	-575.067973006	;
	17	18	8.5e-06	1.95e-05	1.693948976	3812	3812	3812	0	0	1	-30	30	3647.35682314	-448.946861795	-3646.28285624	271.369467865	;
	18	19	3.3e-05	3.8e-05	0.742	2832	2832	2832	0	0	1	-30	30	2133.64228229	-285.652797025	-2132.20966788	208.502127705	;
	18	30	0.000754369	0.006870878	0.022300533	904	904	904	0	0	1	-30	30	-25.2091010436	18.3685588513	25.2163268651	-20.6698536862	;
	19	23	4.24e-05	4.88e-05	0.952412124	2832	2832	2832	0	0	1	-30	30	2214.34871158	-53.6211749722	-2212.38993898	-45.1232063926	;
	20	22	0.000644357	0.005868869	0.019048354	904	904	904	0	0	1	-30	30	132.098425616	-58.6600620759	-131.972001361	57.7898360798	;
	21	25	0.000588113	0.0053566	0.017385701	904	904	904	0	0	1	-30	30	-46.9307945949	-10.1589422798	46.9435291624	8.43661003891	;
	21	34	9.49e-05	0.001016882	0.085654572	2172	2172	2172	0	0	1	-30	30	-624.101327271	-131.658479159	624.46568104	126.496053785	;
	22	29	0.000157753	0.000181614	0.886083495	1416	1416	1416	0	0	1	-30	30	814.769996496	209.056650072	-813.688354746	-301.928993794	;
	22	36	0.000114952	0.001231098	0.103698609	2172	2172	2172	0	0	1	-30	30	58.626728968	136.52483045	-58.601216444	-147.265526898	;
	22	38	0.000222736	0.002385427	0.200930653	2172	2172	2172	0	0	1	-30	30	-534.291664299	240.998259309	535.021917908	-254.460148963	;
	22	46	0.000425686	0.004558955	0.384012537	2172	2172	2172	0	0	1	-30	30	-195.854459377	111.476532597	196.077551525	-149.746499048	;
	23	24	5.52e-05	0.000503	0.0147	2712	2712	2712	0	0	1	-30	30	268.033855836	-26.9581113938	-267.996069558	25.7449654451	;
	23	32	2.02e-05	4.64e-05	1.00675716	1906	1906	1906	0	0	1	-30	30	1390.16850416	109.918894284	-1389.79497299	-215.692586966	;
	23	33	0.000169968	0.000195677	0.238673524	708	708	708	0	0	1	-30	30	428.720357236	-45.8501101477	-428.423733923	20.9195743569	;
	24	26	0.000118	0.000136	0.664	1416	1416	1416	0	0	1	-30	30	-113.416561322	-4.95587862169	113.431904878	-65.3824445844	;
	25	26	0.00041452	0.003775492	0.012253963	904	904	904	0	0	1	-30	30	-73.4913857696	-12.6397362513	73.5131069215	11.5399903715	;
	25	34	0.000619848	0.00564564	0.018323828	904	904	904	0	0	1	-30	30	-68.0767704192	-13.3984431125	68.1048232419	11.7129449714	;
	26	32	0.000607908	0.005536893	0.01797087	904	904	904	0	0	1	-30	30	-9.14997797852	7.88936105199	9.15090672912	-9.78444381757	;
	26	34	4.5e-05	0.000103577	2.245327702	1906	1906	1906	0	0	1	-30	30	-975.894416566	-51.4678089821	976.300784729	-185.610789872	;
	27	34	9.33e-05	0.000999417	0.336734	4344	4344	4344	0	0	1	-30	30	651.899505019	49.39590564	-651.522505578	-81.1076177352	;
	28	38	0.001685665	0.015353221	0.049831335	904	904	904	0	0	1	-30	30	465.926982316	-50.5238863597	-462.406694566	77.342342523	;
	28	41	0.002015591	0.018358223	0.059584548	904	904	904	0	0	1	-30	30	-92.8743435778	55.2129895241	93.1051534191	-59.3186034917	;
	28	50	9.99e-05	0.00321	1.63	7290	7290	7290	0	0	1	-30	30	2183.53654368	-104.014764956	-2179.00212931	78.3614187747	;
	28	80	0.000122152	0.003924627	7.991861101	14580	14580	14580	0	0	1	-30	30	-8640.88896183	1566.77143075	8732.29810068	538.342033281	;
	29	30	8.04e-06	9.26e-06	0.04515506	1416	1416	1416	0	0	1	-30	30	677.960897638	53.4888023365	-677.925812311	-58.236486122	;
	29	36	3.7e-05	8.52e-05	1.846241882	1906	1906	1906	0	0	1	-30	30	-481.483928759	188.514505878	481.593437652	-384.030594794	;
	30	31	0.00033011	0.003006676	0.009758648	904	904	904	0	0	1	-30	30	179.461492954	27.8394753926	-179.358719828	-27.9367273689	;
	31	33	0.000235829	0.000271499	0.331156608	708	708	708	0	0	1	-30	30	-185.740059346	6.7860268201	185.818315373	-41.7262740149	;
	31	36	0.00107165	0.0097607	0.031679912	904	904	904	0	0	1	-30	30	-61.0463561755	-9.39217214062	61.0847268913	6.38716463295	;
	32	33	6.05e-05	6.97e-05	0.1912274	1062	1062	1062	0	0	1	-30	30	449.817725184	39.7193289084	-449.700690958	-59.8258608519	;
	32	37	0.000239942	0.002569698	0.216452349	2172	2172	2172	0	0	1	-30	30	45.4985174309	26.3348034144	-45.4905892917	-49.144592074	;
	32	44	0.000338016	0.003620039	0.304925228	2172	2172	2172	0	0	1	-30	30	30.69947096	69.9843295756	-30.6727811367	-101.886013966	;
	34	37	6.47e-05	0.000692975	0.058371101	2172	2172	2172	0	0	1	-30	30	248.213186816	245.829969048	-248.137789656	-251.20116596	;
	35	37	0.000950447	0.008656772	0.028096937	904	904	904	0	0	1	-30	30	-52.395071809	-19.1109534977	52.4226679433	16.3991711862	;
	35	40	0.001104834	0.01006295	0.032660912	904	904	904	0	0	1	-30	30	-142.96122554	20.7666423269	143.181058941	-22.2002813989	;
	36	38	0.000952048	0.00867136	0.028144286	904	904	904	0	0	1	-30	30	-153.940089981	50.0043018258	154.176683733	-50.8253274338	;
	36	43	0.001604892	0.014617531	0.047443535	904	904	904	0	0	1	-30	30	109.643678149	28.9308516118	-109.446746243	-32.1380619748	;
	36	44	0.000327256	0.003504805	0.295218756	2172	2172	2172	0	0	1	-30	30	175.684940467	81.6625938198	-175.560447657	-111.514249546	;
	36	46	0.000315296	0.00337672	0.284429868	2172	2172	2172	0	0	1	-30	30	-285.24598122	111.155557514	285.53531988	-138.120632384	;
	37	40	0.000119	0.00127	0.429	4344	4344	4344	0	0	1	-30	30	-784.231857419	261.069912086	785.015161816	-297.928105818	;
	38	42	0.001675214	0.015258027	0.049522368	904	904	904	0	0	1	-30	30	-125.229092484	75.5466958918	125.575275989	-77.5682143021	;
	38	45	0.001624604	0.014797065	0.048026242	904	904	904	0	0	1	-30	30	61.7173807355	-0.41589450841	-61.6586273871	-4.10713962169	;
	38	46	0.001525585	0.013895192	0.045099066	904	904	904	0	0	1	-30	30	27.2971959196	-2.40939851393	-27.2864155694	-2.24621227049	;
	38	84	0.000977268	0.010466224	0.881597169	2172	2172	2172	0	0	1	-30	30	-724.114570257	173.795200891	729.423718138	-208.754980236	;
	39	44	0.000549539	0.00500526	0.064981493	1808	1808	1808	0	0	1	-30	30	-347.347250344	-22.4811893919	347.982812347	21.4510547095	;
	40	44	0.000186834	0.002000932	0.16854368	2172	2172	2172	0	0	1	-30	30	494.508285135	-76.6079662227	-494.065588905	63.6201336273	;
	40	47	0.000177428	0.001900194	0.160058219	2172	2172	2172	0	0	1	-30	30	1369.11533059	101.36118013	-1365.93177558	-84.0280549815	;
	41	42	0.001299581	0.011836722	0.038417974	904	904	904	0	0	1	-30	30	576.952699044	-54.7556033895	-572.730759909	89.2360383768	;
	41	52	0.003101751	0.028251087	0.091693421	904	904	904	0	0	1	-30	30	130.513245388	-9.64445969991	-130.00116305	4.85296963639	;
	41	77	0.002217352	0.020195883	0.065548969	904	904	904	0	0	1	-30	30	-167.064679646	18.9235498813	167.674343613	-20.1417374768	;
	42	46	0.00172419	0.015704108	0.050970195	904	904	904	0	0	1	-30	30	145.936610511	-75.072666593	-145.494550059	73.775187749	;
	42	84	0.004178797	0.038060939	0.123532864	904	904	904	0	0	1	-30	30	-146.832823035	22.8094596252	147.737458502	-27.3175913413	;
	43	44	0.000449352	0.004092749	0.013283673	904	904	904	0	0	1	-30	30	-239.091917641	-28.5591068201	239.340389206	29.4272829882	;
	44	48	0.001280818	0.011665829	0.037863315	904	904	904	0	0	1	-30	30	-83.4753076418	5.42970528791	83.5607856505	-8.63673181271	;
	44	57	0.000681396	0.007297531	0.614689901	2172	2172	2172	0	0	1	-30	30	-317.5767704	40.28223446	318.263945118	-97.4348849738	;
	45	46	0.000111099	0.001189836	0.100222927	2172	2172	2172	0	0	1	-30	30	-448.728822596	-35.386925378	448.942442509	27.1232228471	;
	45	50	0.00040114	0.004296079	0.361869864	2172	2172	2172	0	0	1	-30	30	-259.332092008	5.79998334508	259.590904104	-41.0956876205	;
	46	48	0.001260894	0.011484355	0.037274311	904	904	904	0	0	1	-30	30	51.8263278543	-4.00255953246	-51.7941360961	0.369767013953	;
	46	50	0.000334595	0.003583402	0.301839233	2172	2172	2172	0	0	1	-30	30	-162.244946554	23.0853234393	162.333363583	-53.9171603776	;
	47	49	0.001906713	0.017366547	0.056365905	904	904	904	0	0	1	-30	30	-88.0681678997	-5.20322988	88.2100446073	0.603974784071	;
	47	60	0.000752607	0.008060181	0.67892992	2172	2172	2172	0	0	1	-30	30	-884.730228325	13.9764961175	890.395777515	-24.4643448225	;
	48	49	0.001480551	0.013485018	0.043767781	904	904	904	0	0	1	-30	30	78.2791810033	9.76239901076	-78.1909664958	-13.5551541027	;
	48	51	0.001270961	0.011576049	0.037571917	904	904	904	0	0	1	-30	30	58.9531843612	5.65484929914	-58.9105272083	-9.21610692985	;
	49	51	0.000899122	0.008189302	0.0598043	1356	1356	1356	0	0	1	-30	30	-45.5346101971	-11.7389208207	45.5530447386	5.63617504055	;
	49	53	0.002230934	0.020319589	0.065950477	904	904	904	0	0	1	-30	30	-349.298671182	21.4148627034	351.910597656	-4.56705079926	;
	50	51	0.000183433	0.001964511	0.165475847	2172	2172	2172	0	0	1	-30	30	945.970224701	-28.7748275274	-944.409191557	28.1044012504	;
	50	54	0.000298513	0.003196975	0.269289514	2172	2172	2172	0	0	1	-30	30	-282.85380569	127.61948045	283.137872616	-152.808469927	;
	50	62	4.12e-05	0.001322961	2.693994224	14580	14580	14580	0	0	1	-30	30	-747.8892375	21.905651152	748.118777293	-297.456203501	;
	51	55	0.001436718	0.01308578	0.042471992	904	904	904	0	0	1	-30	30	-194.337228225	30.5435739911	194.868868266	-30.1544163333	;
	51	57	0.00189377	0.017248658	0.055983277	904	904	904	0	0	1	-30	30	-116.683011307	19.7690566766	116.937953534	-23.3148757685	;
	52	54	0.001933006	0.017606027	0.057143176	904	904	904	0	0	1	-30	30	224.366625435	-66.8765110793	-223.344398215	70.2614783979	;
	52	56	0.001462649	0.013321963	0.04323856	904	904	904	0	0	1	-30	30	239.53893326	-34.6420990653	-238.708576567	37.7491353828	;
	52	84	0.001585688	0.014442614	0.046875812	904	904	904	0	0	1	-30	30	-172.203113769	21.0346577553	172.66845114	-21.6192609656	;
	53	55	0.000288514	0.003089893	1.041078801	4344	4344	4344	0	0	1	-30	30	1362.60117069	14.7234041751	-1357.52369926	-69.9227936292	;
	53	58	0.000270064	0.002892303	0.243626177	2172	2172	2172	0	0	1	-30	30	-6.22816063906	39.7494676642	6.2353328532	-65.4062461946	;
	53	63	2.79e-05	0.000896312	1.825192122	14580	14580	14580	0	0	1	-30	30	1096.12132376	-65.4626399704	-1095.80416574	-117.314892137	;
	54	55	0.002132132	0.019419691	0.063029714	904	904	904	0	0	1	-30	30	10.1601014159	-11.0264682826	-10.1567739309	4.46380746302	;
	54	61	0.001817125	0.016550571	0.053717525	904	904	904	0	0	1	-30	30	2.26556258202	-0.838671965925	-2.26540598716	-4.76991598209	;
	54	62	0.000345552	0.003700749	0.311723639	2172	2172	2172	0	0	1	-30	30	-17.3677965447	-64.1142417795	17.3763614015	31.5824361833	;
	55	57	0.000154208	0.001651521	0.139111914	2172	2172	2172	0	0	1	-30	30	321.998958076	-16.6362966241	-321.846162133	3.70810459864	;
	55	64	0.003142511	0.028622331	0.092898352	904	904	904	0	0	1	-30	30	-62.7873620517	15.9001666189	62.9185907115	-24.3988705737	;
	56	61	0.001408725	0.01283082	0.041644479	904	904	904	0	0	1	-30	30	60.3901770985	-55.5809754185	-60.3014111107	52.067058848	;
	57	60	0.001430752	0.01303144	0.042295623	904	904	904	0	0	1	-30	30	-247.167377991	3.12929348152	248.002888397	0.0396558354979	;
	57	97	0.000552148	0.005913329	0.498094995	2172	2172	2172	0	0	1	-30	30	-1074.51370531	60.388463396	1080.64404008	-47.005591412	;
	58	59	6.17e-05	0.00066	0.501	6516	6516	6516	0	0	1	-30	30	-1837.50431192	106.436867028	1839.48971625	-138.059503817	;
	58	63	0.00017	0.00182	0.613	4344	4344	4344	0	0	1	-30	30	546.795020567	-133.778307147	-546.296550773	74.3983080547	;
	60	63	0.000254942	0.002730347	0.229984176	2172	2172	2172	0	0	1	-30	30	-192.43646974	-55.4617354043	192.530648086	32.2067307403	;
	60	100	0.000568608	0.006089613	0.512943851	2172	2172	2172	0	0	1	-30	30	-1146.00753959	59.8819054208	1153.13796566	-37.7300490658	;
	61	62	0.000190755	0.001737417	0.022556263	1808	1808	1808	0	0	1	-30	30	-60.1803225313	-120.956290162	60.2131544199	118.895520976	;
	62	63	6.31e-05	0.00202596	4.125535352	14580	14580	14580	0	0	1	-30	30	-1460.68488841	-355.176778399	1461.98067134	-37.4496308463	;
	62	64	0.00024797	0.002655684	0.223695124	2172	2172	2172	0	0	1	-30	30	-582.562251551	211.089547625	583.482396991	-224.589826325	;
	63	97	0.001705746	0.015536123	0.050424972	904	904	904	0	0	1	-30	30	-168.581026681	32.5425108374	169.059788942	-33.4989498471	;
	64	96	0.001229987	0.011202852	0.036360649	904	904	904	0	0	1	-30	30	-107.501632891	1.27556526575	107.638468023	-3.81346083552	;
	64	98	0.00145865	0.013285543	0.043120356	904	904	904	0	0	1	-30	30	33.1620848436	30.0954333996	-33.1319858713	-34.2839955744	;
	64	99	0.00122871	0.011191219	0.036322892	904	904	904	0	0	1	-30	30	97.6515343334	30.7492015726	-97.5262525931	-33.3672355603	;
	64	102	0.00020466	0.002191839	0.73849704	4344	4344	4344	0	0	1	-30	30	-1370.76284884	216.02272571	1374.58895067	-251.657090003	;
	65	68	0.001222283	0.011132689	0.036132921	904	904	904	0	0	1	-30	30	-297.281588108	3.24819319316	298.319835039	2.43483691233	;
	65	69	0.003164497	0.028822584	0.093548306	904	904	904	0	0	1	-30	30	211.069790921	-16.7808108709	-209.710846341	19.4358869318	;
	66	67	0.001903714	0.01733923	0.056277244	904	904	904	0	0	1	-30	30	-303.375636216	55.319397388	305.115815198	-45.3284224784	;
	66	70	0.001986687	0.018094956	0.058730073	904	904	904	0	0	1	-30	30	-8.7377602822	2.50275630771	8.7398032411	-8.61061264165	;
	67	69	0.001285688	0.011710181	0.038007266	904	904	904	0	0	1	-30	30	-333.246141983	42.2311610903	334.645710434	-33.4288289449	;
	68	69	0.00309092	0.02815243	0.091373212	904	904	904	0	0	1	-30	30	335.087285845	-8.42358055706	-331.774998405	29.0631112982	;
	68	71	0.000542799	0.0058132	0.489660838	2172	2172	2172	0	0	1	-30	30	-615.590510754	1.09867478343	617.55710916	-31.4671229843	;
	69	72	0.003845431	0.035024597	0.113677932	904	904	904	0	0	1	-30	30	205.98043779	-20.158523851	-204.400860669	22.7517552553	;
	70	72	0.001924592	0.017529395	0.056894456	904	904	904	0	0	1	-30	30	-103.896980324	24.3479293393	104.110070698	-28.3224398362	;
	71	73	0.000429713	0.004602092	0.387646086	2172	2172	2172	0	0	1	-30	30	-883.990363169	105.675263066	887.245017001	-111.581061311	;
	71	78	0.005029715	0.045811184	0.148687523	904	904	904	0	0	1	-30	30	332.242123094	-20.5437939269	-326.960418577	52.993462696	;
	72	74	0.001850173	0.016851572	0.054694473	904	904	904	0	0	1	-30	30	-10.2111212839	-5.47950666688	10.2131060618	-0.178212487203	;
	73	75	0.000154736	0.001657168	0.139587554	2172	2172	2172	0	0	1	-30	30	-2158.10404716	59.0564568024	2164.97187131	-0.205685395895	;
	73	76	0.003400257	0.030969904	0.100517777	904	904	904	0	0	1	-30	30	309.973977653	18.5093087079	-306.845127814	-0.434035463095	;
	73	79	0.005323371	0.048485836	0.157368535	904	904	904	0	0	1	-30	30	318.351070203	15.6610450343	-313.185506589	15.1260910228	;
	73	80	0.003287737	0.029945065	0.097191498	904	904	904	0	0	1	-30	30	-70.089882136	35.7328196861	70.2958558851	-43.9714563526	;
	73	81	0.001180594	0.012643784	1.065018618	2172	2172	2172	0	0	1	-30	30	1550.07415399	48.8541914614	-1522.94364701	131.228901488	;
	74	77	0.001050785	0.009570661	0.03106311	904	904	904	0	0	1	-30	30	320.564283868	-2.66534125367	-319.524365205	8.92027592155	;
	74	78	0.003080612	0.028058549	0.091068507	904	904	904	0	0	1	-30	30	-178.201325377	-7.36166112404	179.143658078	6.42048680091	;
	75	82	0.000690812	0.007398375	0.623184303	2172	2172	2172	0	0	1	-30	30	-670.90593969	102.467487479	673.970251419	-135.201610772	;
	76	79	0.00216439	0.019713499	0.063983315	904	904	904	0	0	1	-30	30	292.92250485	-8.99411016674	-291.107245108	19.0021007611	;
	77	81	0.002745828	0.0250093	0.081171682	904	904	904	0	0	1	-30	30	-294.930770049	56.1908019336	297.340413684	-42.5921772625	;
	78	81	0.002422622	0.022065501	0.071617111	904	904	904	0	0	1	-30	30	25.7820499381	59.5230903905	-25.6746129105	-65.9839592958	;
	79	80	0.003522928	0.032087205	0.104144155	904	904	904	0	0	1	-30	30	-531.321890445	76.2563061623	541.337972179	4.31009776582	;
	79	81	0.001905365	0.017354266	0.056326045	904	904	904	0	0	1	-30	30	231.321688501	-46.4296279609	-230.282926405	50.1437763356	;
	79	83	0.001772751	0.016146406	0.052405742	904	904	904	0	0	1	-30	30	270.116475984	11.7510657099	-268.840179624	-5.42024292829	;
	80	82	3.61e-05	0.00115912	2.360357594	14580	14580	14580	0	0	1	-30	30	-5451.0977288	-503.232202974	5461.55253464	593.587434106	;
	81	84	0.00122041	0.011115623	0.144310127	1808	1808	1808	0	0	1	-30	30	1078.25574205	-80.6907786274	-1064.33934806	192.630583961	;
	81	86	0.000662535	0.007095536	0.59767536	2172	2172	2172	0	0	1	-30	30	-904.800758722	75.3841940708	910.168717311	-79.1464136817	;
	82	85	0.004627741	0.042149964	0.136804449	904	904	904	0	0	1	-30	30	466.297032742	24.5084104712	-456.648880034	49.2560299648	;
	82	86	0.000927929	0.009937818	0.837088105	2172	2172	2172	0	0	1	-30	30	2162.98476172	91.4391668191	-2121.38719904	267.289363011	;
	82	94	0.005001876	0.045557628	0.147864567	904	904	904	0	0	1	-30	30	116.607439236	-11.9306079427	-115.957467034	2.39627894412	;
	83	89	0.003668123	0.033409661	0.108436396	904	904	904	0	0	1	-30	30	-15.226877254	-22.9873490376	15.2465933499	12.210027114	;
	85	86	0.000987046	0.00899012	0.029178874	904	904	904	0	0	1	-30	30	189.098607515	-76.0110575927	-188.696996984	76.6916825195	;
	86	87	0.000301405	0.003227955	0.271898989	2172	2172	2172	0	0	1	-30	30	-129.538787962	-103.974194344	129.611942172	76.7883130393	;
	86	89	0.003643968	0.033189659	0.107722346	904	904	904	0	0	1	-30	30	189.595362457	-7.70197758147	-188.317711574	8.33915228875	;
	86	90	0.002477336	0.022563841	0.073234554	904	904	904	0	0	1	-30	30	71.6856711287	-8.87951573226	-71.5608786151	2.51056868954	;
	86	92	0.000752885	0.008063158	0.67918067	2172	2172	2172	0	0	1	-30	30	-184.447206686	-45.2833585579	184.697813559	-21.8320247967	;
	87	90	0.002118269	0.019293421	0.062619884	904	904	904	0	0	1	-30	30	106.022561306	5.89141411319	-105.790120964	-10.2127540914	;
	87	95	0.000515412	0.005519901	0.464955523	2172	2172	2172	0	0	1	-30	30	228.259088445	-1.50775059173	-227.996343516	-43.5518677264	;
	88	92	0.001978682	0.018022046	0.058493431	904	904	904	0	0	1	-30	30	902.926099221	6.86021235124	-887.467436422	127.874027479	;
	88	94	0.002833759	0.025810183	0.083771075	904	904	904	0	0	1	-30	30	60.91331442	-8.54559727754	-60.8120956297	0.729047078701	;
	89	93	0.001483845	0.013515018	0.043865152	904	904	904	0	0	1	-30	30	450.050398056	-37.80195239	-447.076408564	60.428818768	;
	90	92	0.002453205	0.022344057	0.072521209	904	904	904	0	0	1	-30	30	-138.770344037	0.978394849151	139.232047846	-4.22258946803	;
	91	147	0.00275034	0.025050396	0.081305066	904	904	904	0	0	1	-30	30	-62.0741740567	10.5546588286	62.1827907554	-17.9306862386	;
	92	95	0.000460572	0.004932573	0.415483409	2172	2172	2172	0	0	1	-30	30	472.732169102	-32.3392786296	-471.732384866	0.307150225385	;
	93	102	0.004195747	0.038215319	0.124033929	904	904	904	0	0	1	-30	30	204.302561513	-44.3479246271	-202.52059851	47.8528120447	;
	93	149	0.002966654	0.027020609	0.087699707	904	904	904	0	0	1	-30	30	-58.1136902803	27.3231202056	58.2416883433	-35.0163262689	;
	94	150	0.00258422	0.023537359	0.076394262	904	904	904	0	0	1	-30	30	607.224113312	0.497114970809	-598.084448568	74.8352180086	;
	95	146	0.001216475	0.011079788	0.035961223	904	904	904	0	0	1	-30	30	340.909887562	18.9801644672	-339.528536632	-10.0722811957	;
	95	150	0.000858914	0.009198692	0.774829649	2172	2172	2172	0	0	1	-30	30	-295.371630399	-17.208494227	296.105339542	-54.5955938889	;
	95	152	0.003724941	0.033927169	0.110116054	904	904	904	0	0	1	-30	30	225.150145338	17.8060184489	-223.292092128	-12.0468529267	;
	96	97	0.002346462	0.021371826	0.069365678	904	904	904	0	0	1	-30	30	-130.657853311	-11.8622247538	131.043896777	8.11583930587	;
...